* Glucose Detection Simulation
* NIR LED and Photodetector Setup

* Define power supply voltage
VCC Vdd 0 DC 5V

* NIR LED Source Simulation (970nm LED)
* Equivalent resistance and forward voltage for an NIR LED
V1 NIR_Led_anode 0 DC 5V
R1 NIR_Led_anode NIR_Led_cathode 330
D1 NIR_Led_cathode 0 DLED

.model DLED D (IS=1e-14 N=1.2)

* Photodetector (Simulated current response)
I1 NIR_Led_cathode Photodetector_in DC 0.001A

* Signal Conditioning Circuit

* Low-pass filter (To remove high-frequency noise)
C1 Photodetector_in Filter_out 1uF
R2 Filter_out GND 10k

* Amplification Stage (Using an operational amplifier model)
XOP1 GND Filter_out Amplifier_out OPAMP
R3 Amplifier_out GND 10k
R4 Amplifier_out Inverting_in 10k
XOP2 Inverting_in GND ADC_input OPAMP

* Operational Amplifier Model
.model OPAMP opamp (GBW=1e6 GAIN=100k)

* ADC input to Raspberry Pi Pico simulation
Vadc ADC_input GND

* Glucose Detection Logic (Threshold Comparator)
* Define glucose detection threshold (Assuming 0.7V threshold for simplicity)
Vref_threshold Vth GND DC 0.7
E1 G_compare GND Voltage(ADC_input,Vth)

* Behavioral model for glucose detection based on threshold
B1 Glucose_Level GND V=(V(ADC_input) > V(Vth)) ? 5 : 0

* Output status
.print V(ADC_input) V(Glucose_Level)

* Analysis and time parameters
.tran 1us 10ms
.end
